
<routes>
<vType id="car" accel="1.0" decel="4.5" sigma="0.5" length="5" minGap="2.5" maxSpeed="25" guiShape="passenger"/>
<vehicle id="veh_0" type="car" depart="00:00:00">
<route edges="-gneE8 -gneE12"/>
</vehicle>
<vehicle id="veh_1" type="car" depart="00:00:01">
<route edges="-gneE8 -gneE12"/>
</vehicle>
<vehicle id="veh_2" type="car" depart="00:00:02">
<route edges="-gneE8 -gneE12"/>
</vehicle>
<vehicle id="veh_3" type="car" depart="00:00:03">
<route edges="-gneE8 -gneE12"/>
</vehicle>
<vehicle id="veh_4" type="car" depart="00:00:04">
<route edges="-gneE8 -gneE12"/>
</vehicle>
<vehicle id="veh_5" type="car" depart="00:00:05">
<route edges="-gneE8 -gneE12"/>
</vehicle>
<vehicle id="veh_6" type="car" depart="00:00:06">
<route edges="-gneE8 -gneE12"/>
</vehicle>
<vehicle id="veh_7" type="car" depart="00:00:07">
<route edges="-gneE8 -gneE12"/>
</vehicle>
<vehicle id="veh_8" type="car" depart="00:00:08">
<route edges="-gneE8 -gneE12"/>
</vehicle>
<vehicle id="veh_9" type="car" depart="00:00:09">
<route edges="-gneE8 -gneE12"/>
</vehicle>
<vehicle id="veh_10" type="car" depart="00:00:10">
<route edges="-gneE8 -gneE12"/>
</vehicle>
<vehicle id="veh_11" type="car" depart="00:00:11">
<route edges="-gneE8 -gneE12"/>
</vehicle>
<vehicle id="veh_12" type="car" depart="00:00:12">
<route edges="-gneE8 -gneE12"/>
</vehicle>
<vehicle id="veh_13" type="car" depart="00:00:13">
<route edges="-gneE8 -gneE12"/>
</vehicle>
<vehicle id="veh_14" type="car" depart="00:00:14">
<route edges="-gneE8 -gneE12"/>
</vehicle>
<vehicle id="veh_15" type="car" depart="00:00:15">
<route edges="-gneE8 -gneE12"/>
</vehicle>
<vehicle id="veh_16" type="car" depart="00:00:16">
<route edges="-gneE8 -gneE12"/>
</vehicle>
<vehicle id="veh_17" type="car" depart="00:00:17">
<route edges="-gneE8 -gneE12"/>
</vehicle>
<vehicle id="veh_18" type="car" depart="00:00:18">
<route edges="-gneE8 -gneE12"/>
</vehicle>
<vehicle id="veh_19" type="car" depart="00:00:19">
<route edges="-gneE8 -gneE12"/>
</vehicle>
<vehicle id="veh_20" type="car" depart="00:00:20">
<route edges="-gneE8 -gneE12"/>
</vehicle>
<vehicle id="veh_21" type="car" depart="00:00:21">
<route edges="-gneE8 -gneE12"/>
</vehicle>
<vehicle id="veh_22" type="car" depart="00:00:22">
<route edges="-gneE8 -gneE12"/>
</vehicle>
<vehicle id="veh_23" type="car" depart="00:00:23">
<route edges="-gneE8 -gneE12"/>
</vehicle>
<vehicle id="veh_24" type="car" depart="00:00:24">
<route edges="-gneE8 -gneE12"/>
</vehicle>
<vehicle id="veh_25" type="car" depart="00:00:25">
<route edges="-gneE8 -gneE12"/>
</vehicle>
<vehicle id="veh_26" type="car" depart="00:00:26">
<route edges="-gneE8 -gneE12"/>
</vehicle>
<vehicle id="veh_27" type="car" depart="00:00:27">
<route edges="-gneE8 -gneE12"/>
</vehicle>
<vehicle id="veh_28" type="car" depart="00:00:28">
<route edges="-gneE8 -gneE12"/>
</vehicle>
<vehicle id="veh_29" type="car" depart="00:00:29">
<route edges="-gneE8 -gneE12"/>
</vehicle>
<vehicle id="veh_30" type="car" depart="00:00:30">
<route edges="-gneE8 -gneE12"/>
</vehicle>
<vehicle id="veh_31" type="car" depart="00:00:31">
<route edges="-gneE8 -gneE12"/>
</vehicle>
<vehicle id="veh_32" type="car" depart="00:00:32">
<route edges="-gneE8 -gneE12"/>
</vehicle>
<vehicle id="veh_33" type="car" depart="00:00:33">
<route edges="-gneE8 -gneE12"/>
</vehicle>
<vehicle id="veh_34" type="car" depart="00:00:34">
<route edges="-gneE8 -gneE12"/>
</vehicle>
<vehicle id="veh_35" type="car" depart="00:00:35">
<route edges="-gneE8 -gneE12"/>
</vehicle>
<vehicle id="veh_36" type="car" depart="00:00:36">
<route edges="-gneE8 -gneE12"/>
</vehicle>
<vehicle id="veh_37" type="car" depart="00:00:37">
<route edges="-gneE8 -gneE12"/>
</vehicle>
<vehicle id="veh_38" type="car" depart="00:00:38">
<route edges="-gneE8 -gneE12"/>
</vehicle>
<vehicle id="veh_39" type="car" depart="00:00:39">
<route edges="-gneE8 -gneE12"/>
</vehicle>
<vehicle id="veh_40" type="car" depart="00:00:40">
<route edges="-gneE8 -gneE12"/>
</vehicle>
<vehicle id="veh_41" type="car" depart="00:00:41">
<route edges="-gneE8 -gneE12"/>
</vehicle>
<vehicle id="veh_42" type="car" depart="00:00:42">
<route edges="-gneE8 -gneE12"/>
</vehicle>
<vehicle id="veh_43" type="car" depart="00:00:43">
<route edges="-gneE8 -gneE12"/>
</vehicle>
<vehicle id="veh_44" type="car" depart="00:00:44">
<route edges="-gneE8 -gneE12"/>
</vehicle>
<vehicle id="veh_45" type="car" depart="00:00:45">
<route edges="-gneE8 -gneE12"/>
</vehicle>
<vehicle id="veh_46" type="car" depart="00:00:46">
<route edges="-gneE8 -gneE12"/>
</vehicle>
<vehicle id="veh_47" type="car" depart="00:00:47">
<route edges="-gneE8 -gneE12"/>
</vehicle>
<vehicle id="veh_48" type="car" depart="00:00:48">
<route edges="-gneE8 -gneE12"/>
</vehicle>
<vehicle id="veh_49" type="car" depart="00:00:49">
<route edges="-gneE8 -gneE12"/>
</vehicle>
<vehicle id="veh_50" type="car" depart="00:00:50">
<route edges="-gneE8 -gneE12"/>
</vehicle>
<vehicle id="veh_51" type="car" depart="00:00:51">
<route edges="-gneE8 -gneE12"/>
</vehicle>
<vehicle id="veh_52" type="car" depart="00:00:52">
<route edges="-gneE8 -gneE12"/>
</vehicle>
<vehicle id="veh_53" type="car" depart="00:00:53">
<route edges="-gneE8 -gneE12"/>
</vehicle>
<vehicle id="veh_54" type="car" depart="00:00:54">
<route edges="-gneE8 -gneE12"/>
</vehicle>
<vehicle id="veh_55" type="car" depart="00:00:55">
<route edges="-gneE8 -gneE12"/>
</vehicle>
<vehicle id="veh_56" type="car" depart="00:00:56">
<route edges="-gneE8 -gneE12"/>
</vehicle>
<vehicle id="veh_57" type="car" depart="00:00:57">
<route edges="-gneE8 -gneE12"/>
</vehicle>
<vehicle id="veh_58" type="car" depart="00:00:58">
<route edges="-gneE8 -gneE12"/>
</vehicle>
<vehicle id="veh_59" type="car" depart="00:00:59">
<route edges="-gneE8 -gneE12"/>
</vehicle>
<vehicle id="veh_60" type="car" depart="00:01:00">
<route edges="-gneE8 -gneE12"/>
</vehicle>
<vehicle id="veh_61" type="car" depart="00:01:01">
<route edges="-gneE8 -gneE12"/>
</vehicle>
<vehicle id="veh_62" type="car" depart="00:01:02">
<route edges="-gneE8 -gneE12"/>
</vehicle>
<vehicle id="veh_63" type="car" depart="00:01:03">
<route edges="-gneE8 -gneE12"/>
</vehicle>
<vehicle id="veh_64" type="car" depart="00:01:04">
<route edges="-gneE8 -gneE12"/>
</vehicle>
<vehicle id="veh_65" type="car" depart="00:01:05">
<route edges="-gneE8 -gneE12"/>
</vehicle>
<vehicle id="veh_66" type="car" depart="00:01:06">
<route edges="-gneE8 -gneE12"/>
</vehicle>
<vehicle id="veh_67" type="car" depart="00:01:07">
<route edges="-gneE8 -gneE12"/>
</vehicle>
<vehicle id="veh_68" type="car" depart="00:01:08">
<route edges="-gneE8 -gneE12"/>
</vehicle>
<vehicle id="veh_69" type="car" depart="00:01:09">
<route edges="-gneE8 -gneE12"/>
</vehicle>
<vehicle id="veh_70" type="car" depart="00:01:10">
<route edges="-gneE8 -gneE12"/>
</vehicle>
<vehicle id="veh_71" type="car" depart="00:01:11">
<route edges="-gneE8 -gneE12"/>
</vehicle>
<vehicle id="veh_72" type="car" depart="00:01:12">
<route edges="-gneE8 -gneE12"/>
</vehicle>
<vehicle id="veh_73" type="car" depart="00:01:13">
<route edges="-gneE8 -gneE12"/>
</vehicle>
<vehicle id="veh_74" type="car" depart="00:01:14">
<route edges="-gneE8 -gneE12"/>
</vehicle>
<vehicle id="veh_75" type="car" depart="00:01:15">
<route edges="-gneE8 -gneE12"/>
</vehicle>
<vehicle id="veh_76" type="car" depart="00:01:16">
<route edges="-gneE8 -gneE12"/>
</vehicle>
<vehicle id="veh_77" type="car" depart="00:01:17">
<route edges="-gneE8 -gneE12"/>
</vehicle>
<vehicle id="veh_78" type="car" depart="00:01:18">
<route edges="-gneE8 -gneE12"/>
</vehicle>
<vehicle id="veh_79" type="car" depart="00:01:19">
<route edges="-gneE8 -gneE12"/>
</vehicle>
<vehicle id="veh_80" type="car" depart="00:01:20">
<route edges="-gneE8 -gneE12"/>
</vehicle>
<vehicle id="veh_81" type="car" depart="00:01:21">
<route edges="-gneE8 -gneE12"/>
</vehicle>
<vehicle id="veh_82" type="car" depart="00:01:22">
<route edges="-gneE8 -gneE12"/>
</vehicle>
<vehicle id="veh_83" type="car" depart="00:01:23">
<route edges="-gneE8 -gneE12"/>
</vehicle>
<vehicle id="veh_84" type="car" depart="00:01:24">
<route edges="-gneE8 -gneE12"/>
</vehicle>
<vehicle id="veh_85" type="car" depart="00:01:25">
<route edges="-gneE8 -gneE12"/>
</vehicle>
<vehicle id="veh_86" type="car" depart="00:01:26">
<route edges="-gneE8 -gneE12"/>
</vehicle>
<vehicle id="veh_87" type="car" depart="00:01:27">
<route edges="-gneE8 -gneE12"/>
</vehicle>
<vehicle id="veh_88" type="car" depart="00:01:28">
<route edges="-gneE8 -gneE12"/>
</vehicle>
<vehicle id="veh_89" type="car" depart="00:01:29">
<route edges="-gneE8 -gneE12"/>
</vehicle>
<vehicle id="veh_90" type="car" depart="00:01:30">
<route edges="-gneE8 -gneE12"/>
</vehicle>
<vehicle id="veh_91" type="car" depart="00:01:31">
<route edges="-gneE8 -gneE12"/>
</vehicle>
<vehicle id="veh_92" type="car" depart="00:01:32">
<route edges="-gneE8 -gneE12"/>
</vehicle>
<vehicle id="veh_93" type="car" depart="00:01:33">
<route edges="-gneE8 -gneE12"/>
</vehicle>
<vehicle id="veh_94" type="car" depart="00:01:34">
<route edges="-gneE8 -gneE12"/>
</vehicle>
<vehicle id="veh_95" type="car" depart="00:01:35">
<route edges="-gneE8 -gneE12"/>
</vehicle>
<vehicle id="veh_96" type="car" depart="00:01:36">
<route edges="-gneE8 -gneE12"/>
</vehicle>
<vehicle id="veh_97" type="car" depart="00:01:37">
<route edges="-gneE8 -gneE12"/>
</vehicle>
<vehicle id="veh_98" type="car" depart="00:01:38">
<route edges="-gneE8 -gneE12"/>
</vehicle>
<vehicle id="veh_99" type="car" depart="00:01:39">
<route edges="-gneE8 -gneE12"/>
</vehicle>
<vehicle id="veh_100" type="car" depart="00:01:40">
<route edges="-gneE8 -gneE12"/>
</vehicle>
<vehicle id="veh_101" type="car" depart="00:01:41">
<route edges="-gneE8 -gneE12"/>
</vehicle>
<vehicle id="veh_102" type="car" depart="00:01:42">
<route edges="-gneE8 -gneE12"/>
</vehicle>
<vehicle id="veh_103" type="car" depart="00:01:43">
<route edges="-gneE8 -gneE12"/>
</vehicle>
<vehicle id="veh_104" type="car" depart="00:01:44">
<route edges="-gneE8 -gneE12"/>
</vehicle>
<vehicle id="veh_105" type="car" depart="00:01:45">
<route edges="-gneE8 -gneE12"/>
</vehicle>
<vehicle id="veh_106" type="car" depart="00:01:46">
<route edges="-gneE8 -gneE12"/>
</vehicle>
<vehicle id="veh_107" type="car" depart="00:01:47">
<route edges="-gneE8 -gneE12"/>
</vehicle>
<vehicle id="veh_108" type="car" depart="00:01:48">
<route edges="-gneE8 -gneE12"/>
</vehicle>
<vehicle id="veh_109" type="car" depart="00:01:49">
<route edges="-gneE8 -gneE12"/>
</vehicle>
<vehicle id="veh_110" type="car" depart="00:01:50">
<route edges="-gneE8 -gneE12"/>
</vehicle>
<vehicle id="veh_111" type="car" depart="00:01:51">
<route edges="-gneE8 -gneE12"/>
</vehicle>
<vehicle id="veh_112" type="car" depart="00:01:52">
<route edges="-gneE8 -gneE12"/>
</vehicle>
<vehicle id="veh_113" type="car" depart="00:01:53">
<route edges="-gneE8 -gneE12"/>
</vehicle>
<vehicle id="veh_114" type="car" depart="00:01:54">
<route edges="-gneE8 -gneE12"/>
</vehicle>
<vehicle id="veh_115" type="car" depart="00:01:55">
<route edges="-gneE8 -gneE12"/>
</vehicle>
<vehicle id="veh_116" type="car" depart="00:01:56">
<route edges="-gneE8 -gneE12"/>
</vehicle>
<vehicle id="veh_117" type="car" depart="00:01:57">
<route edges="-gneE8 -gneE12"/>
</vehicle>
<vehicle id="veh_118" type="car" depart="00:01:58">
<route edges="-gneE8 -gneE12"/>
</vehicle>
<vehicle id="veh_119" type="car" depart="00:01:59">
<route edges="-gneE8 -gneE12"/>
</vehicle>
<vehicle id="veh_120" type="car" depart="00:02:00">
<route edges="-gneE8 -gneE12"/>
</vehicle>
<vehicle id="veh_121" type="car" depart="00:02:01">
<route edges="-gneE8 -gneE12"/>
</vehicle>
<vehicle id="veh_122" type="car" depart="00:02:02">
<route edges="-gneE8 -gneE12"/>
</vehicle>
<vehicle id="veh_123" type="car" depart="00:02:03">
<route edges="-gneE8 -gneE12"/>
</vehicle>
<vehicle id="veh_124" type="car" depart="00:02:04">
<route edges="-gneE8 -gneE12"/>
</vehicle>
<vehicle id="veh_125" type="car" depart="00:02:05">
<route edges="-gneE8 -gneE12"/>
</vehicle>
<vehicle id="veh_126" type="car" depart="00:02:06">
<route edges="-gneE8 -gneE12"/>
</vehicle>
<vehicle id="veh_127" type="car" depart="00:02:07">
<route edges="-gneE8 -gneE12"/>
</vehicle>
<vehicle id="veh_128" type="car" depart="00:02:08">
<route edges="-gneE8 -gneE12"/>
</vehicle>
<vehicle id="veh_129" type="car" depart="00:02:09">
<route edges="-gneE8 -gneE12"/>
</vehicle>
<vehicle id="veh_130" type="car" depart="00:02:10">
<route edges="-gneE8 -gneE12"/>
</vehicle>
<vehicle id="veh_131" type="car" depart="00:02:11">
<route edges="-gneE8 -gneE12"/>
</vehicle>
<vehicle id="veh_132" type="car" depart="00:02:12">
<route edges="-gneE8 -gneE12"/>
</vehicle>
<vehicle id="veh_133" type="car" depart="00:02:13">
<route edges="-gneE8 -gneE12"/>
</vehicle>
<vehicle id="veh_134" type="car" depart="00:02:14">
<route edges="-gneE8 -gneE12"/>
</vehicle>
<vehicle id="veh_135" type="car" depart="00:02:15">
<route edges="-gneE8 -gneE12"/>
</vehicle>
<vehicle id="veh_136" type="car" depart="00:02:16">
<route edges="-gneE8 -gneE12"/>
</vehicle>
<vehicle id="veh_137" type="car" depart="00:02:17">
<route edges="-gneE8 -gneE12"/>
</vehicle>
<vehicle id="veh_138" type="car" depart="00:02:18">
<route edges="-gneE8 -gneE12"/>
</vehicle>
<vehicle id="veh_139" type="car" depart="00:02:19">
<route edges="-gneE8 -gneE12"/>
</vehicle>
<vehicle id="veh_140" type="car" depart="00:02:20">
<route edges="-gneE8 -gneE12"/>
</vehicle>
<vehicle id="veh_141" type="car" depart="00:02:21">
<route edges="-gneE8 -gneE12"/>
</vehicle>
<vehicle id="veh_142" type="car" depart="00:02:22">
<route edges="-gneE8 -gneE12"/>
</vehicle>
<vehicle id="veh_143" type="car" depart="00:02:23">
<route edges="-gneE8 -gneE12"/>
</vehicle>
<vehicle id="veh_144" type="car" depart="00:02:24">
<route edges="-gneE8 -gneE12"/>
</vehicle>
<vehicle id="veh_145" type="car" depart="00:02:25">
<route edges="-gneE8 -gneE12"/>
</vehicle>
<vehicle id="veh_146" type="car" depart="00:02:26">
<route edges="-gneE8 -gneE12"/>
</vehicle>
<vehicle id="veh_147" type="car" depart="00:02:27">
<route edges="-gneE8 -gneE12"/>
</vehicle>
<vehicle id="veh_148" type="car" depart="00:02:28">
<route edges="-gneE8 -gneE12"/>
</vehicle>
<vehicle id="veh_149" type="car" depart="00:02:29">
<route edges="-gneE8 -gneE12"/>
</vehicle>
<vehicle id="veh_150" type="car" depart="00:02:30">
<route edges="-gneE8 -gneE12"/>
</vehicle>
<vehicle id="veh_151" type="car" depart="00:02:31">
<route edges="-gneE8 -gneE12"/>
</vehicle>
<vehicle id="veh_152" type="car" depart="00:02:32">
<route edges="-gneE8 -gneE12"/>
</vehicle>
<vehicle id="veh_153" type="car" depart="00:02:33">
<route edges="-gneE8 -gneE12"/>
</vehicle>
<vehicle id="veh_154" type="car" depart="00:02:34">
<route edges="-gneE8 -gneE12"/>
</vehicle>
<vehicle id="veh_155" type="car" depart="00:02:35">
<route edges="-gneE8 -gneE12"/>
</vehicle>
<vehicle id="veh_156" type="car" depart="00:02:36">
<route edges="-gneE8 -gneE12"/>
</vehicle>
<vehicle id="veh_157" type="car" depart="00:02:37">
<route edges="-gneE8 -gneE12"/>
</vehicle>
<vehicle id="veh_158" type="car" depart="00:02:38">
<route edges="-gneE8 -gneE12"/>
</vehicle>
<vehicle id="veh_159" type="car" depart="00:02:39">
<route edges="-gneE8 -gneE12"/>
</vehicle>
<vehicle id="veh_160" type="car" depart="00:02:40">
<route edges="-gneE8 -gneE12"/>
</vehicle>
<vehicle id="veh_161" type="car" depart="00:02:41">
<route edges="-gneE8 -gneE12"/>
</vehicle>
<vehicle id="veh_162" type="car" depart="00:02:42">
<route edges="-gneE8 -gneE12"/>
</vehicle>
<vehicle id="veh_163" type="car" depart="00:02:43">
<route edges="-gneE8 -gneE12"/>
</vehicle>
<vehicle id="veh_164" type="car" depart="00:02:44">
<route edges="-gneE8 -gneE12"/>
</vehicle>
<vehicle id="veh_165" type="car" depart="00:02:45">
<route edges="-gneE8 -gneE12"/>
</vehicle>
<vehicle id="veh_166" type="car" depart="00:02:46">
<route edges="-gneE8 -gneE12"/>
</vehicle>
<vehicle id="veh_167" type="car" depart="00:02:47">
<route edges="-gneE8 -gneE12"/>
</vehicle>
<vehicle id="veh_168" type="car" depart="00:02:48">
<route edges="-gneE8 -gneE12"/>
</vehicle>
<vehicle id="veh_169" type="car" depart="00:02:49">
<route edges="-gneE8 -gneE12"/>
</vehicle>
<vehicle id="veh_170" type="car" depart="00:02:50">
<route edges="-gneE8 -gneE12"/>
</vehicle>
<vehicle id="veh_171" type="car" depart="00:02:51">
<route edges="-gneE8 -gneE12"/>
</vehicle>
<vehicle id="veh_172" type="car" depart="00:02:52">
<route edges="-gneE8 -gneE12"/>
</vehicle>
<vehicle id="veh_173" type="car" depart="00:02:53">
<route edges="-gneE8 -gneE12"/>
</vehicle>
<vehicle id="veh_174" type="car" depart="00:02:54">
<route edges="-gneE8 -gneE12"/>
</vehicle>
<vehicle id="veh_175" type="car" depart="00:02:55">
<route edges="-gneE8 -gneE12"/>
</vehicle>
<vehicle id="veh_176" type="car" depart="00:02:56">
<route edges="-gneE8 -gneE12"/>
</vehicle>
<vehicle id="veh_177" type="car" depart="00:02:57">
<route edges="-gneE8 -gneE12"/>
</vehicle>
<vehicle id="veh_178" type="car" depart="00:02:58">
<route edges="-gneE8 -gneE12"/>
</vehicle>
<vehicle id="veh_179" type="car" depart="00:02:59">
<route edges="-gneE8 -gneE12"/>
</vehicle>
<vehicle id="veh_180" type="car" depart="00:03:00">
<route edges="-gneE8 -gneE12"/>
</vehicle>
<vehicle id="veh_181" type="car" depart="00:03:01">
<route edges="-gneE8 -gneE12"/>
</vehicle>
<vehicle id="veh_182" type="car" depart="00:03:02">
<route edges="-gneE8 -gneE12"/>
</vehicle>
<vehicle id="veh_183" type="car" depart="00:03:03">
<route edges="-gneE8 -gneE12"/>
</vehicle>
<vehicle id="veh_184" type="car" depart="00:03:04">
<route edges="-gneE8 -gneE12"/>
</vehicle>
<vehicle id="veh_185" type="car" depart="00:03:05">
<route edges="-gneE8 -gneE12"/>
</vehicle>
<vehicle id="veh_186" type="car" depart="00:03:06">
<route edges="-gneE8 -gneE12"/>
</vehicle>
<vehicle id="veh_187" type="car" depart="00:03:07">
<route edges="-gneE8 -gneE12"/>
</vehicle>
<vehicle id="veh_188" type="car" depart="00:03:08">
<route edges="-gneE8 -gneE12"/>
</vehicle>
<vehicle id="veh_189" type="car" depart="00:03:09">
<route edges="-gneE8 -gneE12"/>
</vehicle>
<vehicle id="veh_190" type="car" depart="00:03:10">
<route edges="-gneE8 -gneE12"/>
</vehicle>
<vehicle id="veh_191" type="car" depart="00:03:11">
<route edges="-gneE8 -gneE12"/>
</vehicle>
<vehicle id="veh_192" type="car" depart="00:03:12">
<route edges="-gneE8 -gneE12"/>
</vehicle>
<vehicle id="veh_193" type="car" depart="00:03:13">
<route edges="-gneE8 -gneE12"/>
</vehicle>
<vehicle id="veh_194" type="car" depart="00:03:14">
<route edges="-gneE8 -gneE12"/>
</vehicle>
<vehicle id="veh_195" type="car" depart="00:03:15">
<route edges="-gneE8 -gneE12"/>
</vehicle>
<vehicle id="veh_196" type="car" depart="00:03:16">
<route edges="-gneE8 -gneE12"/>
</vehicle>
<vehicle id="veh_197" type="car" depart="00:03:17">
<route edges="-gneE8 -gneE12"/>
</vehicle>
<vehicle id="veh_198" type="car" depart="00:03:18">
<route edges="-gneE8 -gneE12"/>
</vehicle>
<vehicle id="veh_199" type="car" depart="00:03:19">
<route edges="-gneE8 -gneE12"/>
</vehicle>
<vehicle id="veh_200" type="car" depart="00:00:00">
<route edges="-gneE8 -gneE7"/>
</vehicle>
<vehicle id="veh_201" type="car" depart="00:00:01">
<route edges="-gneE8 -gneE7"/>
</vehicle>
<vehicle id="veh_202" type="car" depart="00:00:02">
<route edges="-gneE8 -gneE7"/>
</vehicle>
<vehicle id="veh_203" type="car" depart="00:00:03">
<route edges="-gneE8 -gneE7"/>
</vehicle>
<vehicle id="veh_204" type="car" depart="00:00:04">
<route edges="-gneE8 -gneE7"/>
</vehicle>
<vehicle id="veh_205" type="car" depart="00:00:05">
<route edges="-gneE8 -gneE7"/>
</vehicle>
<vehicle id="veh_206" type="car" depart="00:00:06">
<route edges="-gneE8 -gneE7"/>
</vehicle>
<vehicle id="veh_207" type="car" depart="00:00:07">
<route edges="-gneE8 -gneE7"/>
</vehicle>
<vehicle id="veh_208" type="car" depart="00:00:08">
<route edges="-gneE8 -gneE7"/>
</vehicle>
<vehicle id="veh_209" type="car" depart="00:00:09">
<route edges="-gneE8 -gneE7"/>
</vehicle>
<vehicle id="veh_210" type="car" depart="00:00:10">
<route edges="-gneE8 -gneE7"/>
</vehicle>
<vehicle id="veh_211" type="car" depart="00:00:11">
<route edges="-gneE8 -gneE7"/>
</vehicle>
<vehicle id="veh_212" type="car" depart="00:00:12">
<route edges="-gneE8 -gneE7"/>
</vehicle>
<vehicle id="veh_213" type="car" depart="00:00:13">
<route edges="-gneE8 -gneE7"/>
</vehicle>
<vehicle id="veh_214" type="car" depart="00:00:14">
<route edges="-gneE8 -gneE7"/>
</vehicle>
<vehicle id="veh_215" type="car" depart="00:00:15">
<route edges="-gneE8 -gneE7"/>
</vehicle>
<vehicle id="veh_216" type="car" depart="00:00:16">
<route edges="-gneE8 -gneE7"/>
</vehicle>
<vehicle id="veh_217" type="car" depart="00:00:17">
<route edges="-gneE8 -gneE7"/>
</vehicle>
<vehicle id="veh_218" type="car" depart="00:00:18">
<route edges="-gneE8 -gneE7"/>
</vehicle>
<vehicle id="veh_219" type="car" depart="00:00:19">
<route edges="-gneE8 -gneE7"/>
</vehicle>
<vehicle id="veh_220" type="car" depart="00:00:20">
<route edges="-gneE8 -gneE7"/>
</vehicle>
<vehicle id="veh_221" type="car" depart="00:00:21">
<route edges="-gneE8 -gneE7"/>
</vehicle>
<vehicle id="veh_222" type="car" depart="00:00:22">
<route edges="-gneE8 -gneE7"/>
</vehicle>
<vehicle id="veh_223" type="car" depart="00:00:23">
<route edges="-gneE8 -gneE7"/>
</vehicle>
<vehicle id="veh_224" type="car" depart="00:00:24">
<route edges="-gneE8 -gneE7"/>
</vehicle>
<vehicle id="veh_225" type="car" depart="00:00:25">
<route edges="-gneE8 -gneE7"/>
</vehicle>
<vehicle id="veh_226" type="car" depart="00:00:26">
<route edges="-gneE8 -gneE7"/>
</vehicle>
<vehicle id="veh_227" type="car" depart="00:00:27">
<route edges="-gneE8 -gneE7"/>
</vehicle>
<vehicle id="veh_228" type="car" depart="00:00:28">
<route edges="-gneE8 -gneE7"/>
</vehicle>
<vehicle id="veh_229" type="car" depart="00:00:29">
<route edges="-gneE8 -gneE7"/>
</vehicle>
<vehicle id="veh_230" type="car" depart="00:00:30">
<route edges="-gneE8 -gneE7"/>
</vehicle>
<vehicle id="veh_231" type="car" depart="00:00:31">
<route edges="-gneE8 -gneE7"/>
</vehicle>
<vehicle id="veh_232" type="car" depart="00:00:32">
<route edges="-gneE8 -gneE7"/>
</vehicle>
<vehicle id="veh_233" type="car" depart="00:00:33">
<route edges="-gneE8 -gneE7"/>
</vehicle>
<vehicle id="veh_234" type="car" depart="00:00:34">
<route edges="-gneE8 -gneE7"/>
</vehicle>
<vehicle id="veh_235" type="car" depart="00:00:35">
<route edges="-gneE8 -gneE7"/>
</vehicle>
<vehicle id="veh_236" type="car" depart="00:00:36">
<route edges="-gneE8 -gneE7"/>
</vehicle>
<vehicle id="veh_237" type="car" depart="00:00:37">
<route edges="-gneE8 -gneE7"/>
</vehicle>
<vehicle id="veh_238" type="car" depart="00:00:38">
<route edges="-gneE8 -gneE7"/>
</vehicle>
<vehicle id="veh_239" type="car" depart="00:00:39">
<route edges="-gneE8 -gneE7"/>
</vehicle>
<vehicle id="veh_240" type="car" depart="00:00:40">
<route edges="-gneE8 -gneE7"/>
</vehicle>
<vehicle id="veh_241" type="car" depart="00:00:41">
<route edges="-gneE8 -gneE7"/>
</vehicle>
<vehicle id="veh_242" type="car" depart="00:00:42">
<route edges="-gneE8 -gneE7"/>
</vehicle>
<vehicle id="veh_243" type="car" depart="00:00:43">
<route edges="-gneE8 -gneE7"/>
</vehicle>
<vehicle id="veh_244" type="car" depart="00:00:44">
<route edges="-gneE8 -gneE7"/>
</vehicle>
<vehicle id="veh_245" type="car" depart="00:00:45">
<route edges="-gneE8 -gneE7"/>
</vehicle>
<vehicle id="veh_246" type="car" depart="00:00:46">
<route edges="-gneE8 -gneE7"/>
</vehicle>
<vehicle id="veh_247" type="car" depart="00:00:47">
<route edges="-gneE8 -gneE7"/>
</vehicle>
<vehicle id="veh_248" type="car" depart="00:00:48">
<route edges="-gneE8 -gneE7"/>
</vehicle>
<vehicle id="veh_249" type="car" depart="00:00:49">
<route edges="-gneE8 -gneE7"/>
</vehicle>
<vehicle id="veh_250" type="car" depart="00:00:50">
<route edges="-gneE8 -gneE7"/>
</vehicle>
<vehicle id="veh_251" type="car" depart="00:00:51">
<route edges="-gneE8 -gneE7"/>
</vehicle>
<vehicle id="veh_252" type="car" depart="00:00:52">
<route edges="-gneE8 -gneE7"/>
</vehicle>
<vehicle id="veh_253" type="car" depart="00:00:53">
<route edges="-gneE8 -gneE7"/>
</vehicle>
<vehicle id="veh_254" type="car" depart="00:00:54">
<route edges="-gneE8 -gneE7"/>
</vehicle>
<vehicle id="veh_255" type="car" depart="00:00:55">
<route edges="-gneE8 -gneE7"/>
</vehicle>
<vehicle id="veh_256" type="car" depart="00:00:56">
<route edges="-gneE8 -gneE7"/>
</vehicle>
<vehicle id="veh_257" type="car" depart="00:00:57">
<route edges="-gneE8 -gneE7"/>
</vehicle>
<vehicle id="veh_258" type="car" depart="00:00:58">
<route edges="-gneE8 -gneE7"/>
</vehicle>
<vehicle id="veh_259" type="car" depart="00:00:59">
<route edges="-gneE8 -gneE7"/>
</vehicle>
<vehicle id="veh_260" type="car" depart="00:01:00">
<route edges="-gneE8 -gneE7"/>
</vehicle>
<vehicle id="veh_261" type="car" depart="00:01:01">
<route edges="-gneE8 -gneE7"/>
</vehicle>
<vehicle id="veh_262" type="car" depart="00:01:02">
<route edges="-gneE8 -gneE7"/>
</vehicle>
<vehicle id="veh_263" type="car" depart="00:01:03">
<route edges="-gneE8 -gneE7"/>
</vehicle>
<vehicle id="veh_264" type="car" depart="00:01:04">
<route edges="-gneE8 -gneE7"/>
</vehicle>
<vehicle id="veh_265" type="car" depart="00:01:05">
<route edges="-gneE8 -gneE7"/>
</vehicle>
<vehicle id="veh_266" type="car" depart="00:01:06">
<route edges="-gneE8 -gneE7"/>
</vehicle>
<vehicle id="veh_267" type="car" depart="00:01:07">
<route edges="-gneE8 -gneE7"/>
</vehicle>
<vehicle id="veh_268" type="car" depart="00:01:08">
<route edges="-gneE8 -gneE7"/>
</vehicle>
<vehicle id="veh_269" type="car" depart="00:01:09">
<route edges="-gneE8 -gneE7"/>
</vehicle>
<vehicle id="veh_270" type="car" depart="00:01:10">
<route edges="-gneE8 -gneE7"/>
</vehicle>
<vehicle id="veh_271" type="car" depart="00:01:11">
<route edges="-gneE8 -gneE7"/>
</vehicle>
<vehicle id="veh_272" type="car" depart="00:01:12">
<route edges="-gneE8 -gneE7"/>
</vehicle>
<vehicle id="veh_273" type="car" depart="00:01:13">
<route edges="-gneE8 -gneE7"/>
</vehicle>
<vehicle id="veh_274" type="car" depart="00:01:14">
<route edges="-gneE8 -gneE7"/>
</vehicle>
<vehicle id="veh_275" type="car" depart="00:01:15">
<route edges="-gneE8 -gneE7"/>
</vehicle>
<vehicle id="veh_276" type="car" depart="00:01:16">
<route edges="-gneE8 -gneE7"/>
</vehicle>
<vehicle id="veh_277" type="car" depart="00:01:17">
<route edges="-gneE8 -gneE7"/>
</vehicle>
<vehicle id="veh_278" type="car" depart="00:01:18">
<route edges="-gneE8 -gneE7"/>
</vehicle>
<vehicle id="veh_279" type="car" depart="00:01:19">
<route edges="-gneE8 -gneE7"/>
</vehicle>
<vehicle id="veh_280" type="car" depart="00:01:20">
<route edges="-gneE8 -gneE7"/>
</vehicle>
<vehicle id="veh_281" type="car" depart="00:01:21">
<route edges="-gneE8 -gneE7"/>
</vehicle>
<vehicle id="veh_282" type="car" depart="00:01:22">
<route edges="-gneE8 -gneE7"/>
</vehicle>
<vehicle id="veh_283" type="car" depart="00:01:23">
<route edges="-gneE8 -gneE7"/>
</vehicle>
<vehicle id="veh_284" type="car" depart="00:01:24">
<route edges="-gneE8 -gneE7"/>
</vehicle>
<vehicle id="veh_285" type="car" depart="00:01:25">
<route edges="-gneE8 -gneE7"/>
</vehicle>
<vehicle id="veh_286" type="car" depart="00:01:26">
<route edges="-gneE8 -gneE7"/>
</vehicle>
<vehicle id="veh_287" type="car" depart="00:01:27">
<route edges="-gneE8 -gneE7"/>
</vehicle>
<vehicle id="veh_288" type="car" depart="00:01:28">
<route edges="-gneE8 -gneE7"/>
</vehicle>
<vehicle id="veh_289" type="car" depart="00:01:29">
<route edges="-gneE8 -gneE7"/>
</vehicle>
<vehicle id="veh_290" type="car" depart="00:01:30">
<route edges="-gneE8 -gneE7"/>
</vehicle>
<vehicle id="veh_291" type="car" depart="00:01:31">
<route edges="-gneE8 -gneE7"/>
</vehicle>
<vehicle id="veh_292" type="car" depart="00:01:32">
<route edges="-gneE8 -gneE7"/>
</vehicle>
<vehicle id="veh_293" type="car" depart="00:01:33">
<route edges="-gneE8 -gneE7"/>
</vehicle>
<vehicle id="veh_294" type="car" depart="00:01:34">
<route edges="-gneE8 -gneE7"/>
</vehicle>
<vehicle id="veh_295" type="car" depart="00:01:35">
<route edges="-gneE8 -gneE7"/>
</vehicle>
<vehicle id="veh_296" type="car" depart="00:01:36">
<route edges="-gneE8 -gneE7"/>
</vehicle>
<vehicle id="veh_297" type="car" depart="00:01:37">
<route edges="-gneE8 -gneE7"/>
</vehicle>
<vehicle id="veh_298" type="car" depart="00:01:38">
<route edges="-gneE8 -gneE7"/>
</vehicle>
<vehicle id="veh_299" type="car" depart="00:01:39">
<route edges="-gneE8 -gneE7"/>
</vehicle>
<vehicle id="veh_300" type="car" depart="00:01:40">
<route edges="-gneE8 -gneE7"/>
</vehicle>
<vehicle id="veh_301" type="car" depart="00:01:41">
<route edges="-gneE8 -gneE7"/>
</vehicle>
<vehicle id="veh_302" type="car" depart="00:01:42">
<route edges="-gneE8 -gneE7"/>
</vehicle>
<vehicle id="veh_303" type="car" depart="00:01:43">
<route edges="-gneE8 -gneE7"/>
</vehicle>
<vehicle id="veh_304" type="car" depart="00:01:44">
<route edges="-gneE8 -gneE7"/>
</vehicle>
<vehicle id="veh_305" type="car" depart="00:01:45">
<route edges="-gneE8 -gneE7"/>
</vehicle>
<vehicle id="veh_306" type="car" depart="00:01:46">
<route edges="-gneE8 -gneE7"/>
</vehicle>
<vehicle id="veh_307" type="car" depart="00:01:47">
<route edges="-gneE8 -gneE7"/>
</vehicle>
<vehicle id="veh_308" type="car" depart="00:01:48">
<route edges="-gneE8 -gneE7"/>
</vehicle>
<vehicle id="veh_309" type="car" depart="00:01:49">
<route edges="-gneE8 -gneE7"/>
</vehicle>
<vehicle id="veh_310" type="car" depart="00:01:50">
<route edges="-gneE8 -gneE7"/>
</vehicle>
<vehicle id="veh_311" type="car" depart="00:01:51">
<route edges="-gneE8 -gneE7"/>
</vehicle>
<vehicle id="veh_312" type="car" depart="00:01:52">
<route edges="-gneE8 -gneE7"/>
</vehicle>
<vehicle id="veh_313" type="car" depart="00:01:53">
<route edges="-gneE8 -gneE7"/>
</vehicle>
<vehicle id="veh_314" type="car" depart="00:01:54">
<route edges="-gneE8 -gneE7"/>
</vehicle>
<vehicle id="veh_315" type="car" depart="00:01:55">
<route edges="-gneE8 -gneE7"/>
</vehicle>
<vehicle id="veh_316" type="car" depart="00:01:56">
<route edges="-gneE8 -gneE7"/>