<routes>
<vType id="car" accel="2.0" decel="4.5" length="5.0" maxSpeed="13.89" guiShape="passenger"/>
<route id="route0" edges="gneE6 gneE7 gneE8 gneE9"/>
<route id="route1" edges="gneE6 gneE7 gneE8 gneE9"/>
<route id="route2" edges="-gneE10 -gneE12 -gneE13"/>
<route id="route3" edges="-gneE9 -gneE8 gneE10 -gneE11"/>
<route id="route4" edges="gneE13 gneE12 -gneE7 -gneE6"/>
<route id="route5" edges="gneE13 gneE12 -gneE7 -gneE6"/>
<route id="route6" edges="-gneE9 -gneE8 gneE10 -gneE11"/>
<route id="route7" edges="gneE6 gneE7 gneE8 gneE9"/>
<route id="route8" edges="-gneE9 -gneE8 gneE10 -gneE11"/>
<route id="route9" edges="gneE13 gneE12 -gneE7 -gneE6"/>
<route id="route10" edges="-gneE9 -gneE8 gneE10 -gneE11"/>
<route id="route11" edges="-gneE9 -gneE8 gneE10 -gneE11"/>
<route id="route12" edges="gneE13 gneE12 -gneE7 -gneE6"/>
<route id="route13" edges="-gneE10 -gneE12 -gneE13"/>
<route id="route14" edges="gneE6 gneE7 gneE8 gneE9"/>
<route id="route15" edges="-gneE9 -gneE8 gneE10 -gneE11"/>
<route id="route16" edges="gneE13 gneE12 -gneE7 -gneE6"/>
<route id="route17" edges="-gneE10 -gneE12 -gneE13"/>
<route id="route18" edges="gneE13 gneE12 -gneE7 -gneE6"/>
<route id="route19" edges="-gneE10 -gneE12 -gneE13"/>
<route id="route20" edges="gneE6 gneE7 gneE8 gneE9"/>
<route id="route21" edges="gneE13 gneE12 -gneE7 -gneE6"/>
<route id="route22" edges="-gneE9 -gneE8 gneE10 -gneE11"/>
<route id="route23" edges="-gneE9 -gneE8 gneE10 -gneE11"/>
<route id="route24" edges="-gneE10 -gneE12 -gneE13"/>
<route id="route25" edges="gneE6 gneE7 gneE8 gneE9"/>
<route id="route26" edges="gneE6 gneE7 gneE8 gneE9"/>
<route id="route27" edges="gneE13 gneE12 -gneE7 -gneE6"/>
<route id="route28" edges="gneE13 gneE12 -gneE7 -gneE6"/>
<route id="route29" edges="-gneE9 -gneE8 gneE10 -gneE11"/>
<route id="route30" edges="gneE6 gneE7 gneE8 gneE9"/>
<route id="route31" edges="gneE13 gneE12 -gneE7 -gneE6"/>
<route id="route32" edges="-gneE9 -gneE8 gneE10 -gneE11"/>
<route id="route33" edges="-gneE9 -gneE8 gneE10 -gneE11"/>
<route id="route34" edges="-gneE10 -gneE12 -gneE13"/>
<route id="route35" edges="gneE13 gneE12 -gneE7 -gneE6"/>
<route id="route36" edges="gneE6 gneE7 gneE8 gneE9"/>
<route id="route37" edges="-gneE9 -gneE8 gneE10 -gneE11"/>
<route id="route38" edges="gneE13 gneE12 -gneE7 -gneE6"/>
<route id="route39" edges="gneE6 gneE7 gneE8 gneE9"/>
<route id="route40" edges="-gneE9 -gneE8 gneE10 -gneE11"/>
<route id="route41" edges="gneE13 gneE12 -gneE7 -gneE6"/>
<route id="route42" edges="gneE13 gneE12 -gneE7 -gneE6"/>
<route id="route43" edges="gneE13 gneE12 -gneE7 -gneE6"/>
<route id="route44" edges="gneE13 gneE12 -gneE7 -gneE6"/>
<route id="route45" edges="-gneE10 -gneE12 -gneE13"/>
<route id="route46" edges="-gneE9 -gneE8 gneE10 -gneE11"/>
<route id="route47" edges="gneE13 gneE12 -gneE7 -gneE6"/>
<route id="route48" edges="gneE6 gneE7 gneE8 gneE9"/>
<route id="route49" edges="gneE13 gneE12 -gneE7 -gneE6"/>
<route id="route50" edges="gneE13 gneE12 -gneE7 -gneE6"/>
<route id="route51" edges="-gneE10 -gneE12 -gneE13"/>
<route id="route52" edges="-gneE10 -gneE12 -gneE13"/>
<route id="route53" edges="-gneE9 -gneE8 gneE10 -gneE11"/>
<route id="route54" edges="gneE6 gneE7 gneE8 gneE9"/>
<route id="route55" edges="-gneE10 -gneE12 -gneE13"/>
<route id="route56" edges="-gneE10 -gneE12 -gneE13"/>
<route id="route57" edges="gneE6 gneE7 gneE8 gneE9"/>
<route id="route58" edges="gneE6 gneE7 gneE8 gneE9"/>
<route id="route59" edges="-gneE10 -gneE12 -gneE13"/>
<route id="route60" edges="-gneE9 -gneE8 gneE10 -gneE11"/>
<route id="route61" edges="gneE6 gneE7 gneE8 gneE9"/>
<route id="route62" edges="gneE13 gneE12 -gneE7 -gneE6"/>
<route id="route63" edges="gneE6 gneE7 gneE8 gneE9"/>
<route id="route64" edges="-gneE10 -gneE12 -gneE13"/>
<route id="route65" edges="gneE6 gneE7 gneE8 gneE9"/>
<route id="route66" edges="gneE13 gneE12 -gneE7 -gneE6"/>
<route id="route67" edges="gneE6 gneE7 gneE8 gneE9"/>
<route id="route68" edges="-gneE10 -gneE12 -gneE13"/>
<route id="route69" edges="-gneE9 -gneE8 gneE10 -gneE11"/>
<route id="route70" edges="gneE6 gneE7 gneE8 gneE9"/>
<route id="route71" edges="gneE13 gneE12 -gneE7 -gneE6"/>
<route id="route72" edges="-gneE10 -gneE12 -gneE13"/>
<route id="route73" edges="-gneE10 -gneE12 -gneE13"/>
<route id="route74" edges="-gneE10 -gneE12 -gneE13"/>
<route id="route75" edges="-gneE9 -gneE8 gneE10 -gneE11"/>
<route id="route76" edges="-gneE10 -gneE12 -gneE13"/>
<route id="route77" edges="gneE6 gneE7 gneE8 gneE9"/>
<route id="route78" edges="gneE13 gneE12 -gneE7 -gneE6"/>
<route id="route79" edges="-gneE10 -gneE12 -gneE13"/>
<route id="route80" edges="-gneE9 -gneE8 gneE10 -gneE11"/>
<route id="route81" edges="gneE6 gneE7 gneE8 gneE9"/>
<route id="route82" edges="gneE6 gneE7 gneE8 gneE9"/>
<route id="route83" edges="gneE13 gneE12 -gneE7 -gneE6"/>
<route id="route84" edges="-gneE9 -gneE8 gneE10 -gneE11"/>
<route id="route85" edges="gneE6 gneE7 gneE8 gneE9"/>
<route id="route86" edges="-gneE9 -gneE8 gneE10 -gneE11"/>
<route id="route87" edges="-gneE9 -gneE8 gneE10 -gneE11"/>
<route id="route88" edges="-gneE10 -gneE12 -gneE13"/>
<route id="route89" edges="gneE13 gneE12 -gneE7 -gneE6"/>
<route id="route90" edges="-gneE9 -gneE8 gneE10 -gneE11"/>
<route id="route91" edges="-gneE9 -gneE8 gneE10 -gneE11"/>
<route id="route92" edges="gneE6 gneE7 gneE8 gneE9"/>
<route id="route93" edges="-gneE10 -gneE12 -gneE13"/>
<route id="route94" edges="-gneE10 -gneE12 -gneE13"/>
<route id="route95" edges="gneE13 gneE12 -gneE7 -gneE6"/>
<route id="route96" edges="-gneE10 -gneE12 -gneE13"/>
<route id="route97" edges="-gneE9 -gneE8 gneE10 -gneE11"/>
<route id="route98" edges="-gneE10 -gneE12 -gneE13"/>
<route id="route99" edges="-gneE9 -gneE8 gneE10 -gneE11"/>
<route id="route100" edges="-gneE9 -gneE8 gneE10 -gneE11"/>
<route id="route101" edges="-gneE10 -gneE12 -gneE13"/>
<route id="route102" edges="gneE6 gneE7 gneE8 gneE9"/>
<route id="route103" edges="-gneE10 -gneE12 -gneE13"/>
<route id="route104" edges="gneE13 gneE12 -gneE7 -gneE6"/>
<route id="route105" edges="gneE6 gneE7 gneE8 gneE9"/>
<route id="route106" edges="-gneE9 -gneE8 gneE10 -gneE11"/>
<route id="route107" edges="gneE6 gneE7 gneE8 gneE9"/>
<route id="route108" edges="-gneE9 -gneE8 gneE10 -gneE11"/>
<route id="route109" edges="-gneE10 -gneE12 -gneE13"/>
<route id="route110" edges="-gneE10 -gneE12 -gneE13"/>
<route id="route111" edges="gneE6 gneE7 gneE8 gneE9"/>
<route id="route112" edges="gneE13 gneE12 -gneE7 -gneE6"/>
<route id="route113" edges="-gneE10 -gneE12 -gneE13"/>
<route id="route114" edges="gneE13 gneE12 -gneE7 -gneE6"/>
<route id="route115" edges="-gneE9 -gneE8 gneE10 -gneE11"/>
<route id="route116" edges="gneE6 gneE7 gneE8 gneE9"/>
<route id="route117" edges="-gneE9 -gneE8 gneE10 -gneE11"/>
<route id="route118" edges="gneE13 gneE12 -gneE7 -gneE6"/>
<route id="route119" edges="-gneE9 -gneE8 gneE10 -gneE11"/>
<route id="route120" edges="-gneE9 -gneE8 gneE10 -gneE11"/>
<route id="route121" edges="gneE13 gneE12 -gneE7 -gneE6"/>
<route id="route122" edges="-gneE10 -gneE12 -gneE13"/>
<route id="route123" edges="gneE6 gneE7 gneE8 gneE9"/>
<route id="route124" edges="-gneE9 -gneE8 gneE10 -gneE11"/>
<route id="route125" edges="-gneE9 -gneE8 gneE10 -gneE11"/>
<route id="route126" edges="gneE6 gneE7 gneE8 gneE9"/>
<route id="route127" edges="gneE6 gneE7 gneE8 gneE9"/>
<route id="route128" edges="gneE13 gneE12 -gneE7 -gneE6"/>
<route id="route129" edges="-gneE10 -gneE12 -gneE13"/>
<route id="route130" edges="-gneE10 -gneE12 -gneE13"/>
<route id="route131" edges="-gneE10 -gneE12 -gneE13"/>
<route id="route132" edges="-gneE10 -gneE12 -gneE13"/>
<route id="route133" edges="-gneE10 -gneE12 -gneE13"/>
<route id="route134" edges="-gneE10 -gneE12 -gneE13"/>
<route id="route135" edges="-gneE9 -gneE8 gneE10 -gneE11"/>
<route id="route136" edges="-gneE10 -gneE12 -gneE13"/>
<route id="route137" edges="-gneE10 -gneE12 -gneE13"/>
<route id="route138" edges="gneE13 gneE12 -gneE7 -gneE6"/>
<route id="route139" edges="gneE13 gneE12 -gneE7 -gneE6"/>
<route id="route140" edges="gneE6 gneE7 gneE8 gneE9"/>
<route id="route141" edges="-gneE9 -gneE8 gneE10 -gneE11"/>
<route id="route142" edges="-gneE10 -gneE12 -gneE13"/>
<route id="route143" edges="-gneE10 -gneE12 -gneE13"/>
<route id="route144" edges="gneE13 gneE12 -gneE7 -gneE6"/>
<route id="route145" edges="-gneE9 -gneE8 gneE10 -gneE11"/>
<route id="route146" edges="-gneE10 -gneE12 -gneE13"/>
<route id="route147" edges="gneE6 gneE7 gneE8 gneE9"/>
<route id="route148" edges="-gneE10 -gneE12 -gneE13"/>
<route id="route149" edges="-gneE10 -gneE12 -gneE13"/>
<route id="route150" edges="gneE6 gneE7 gneE8 gneE9"/>
<route id="route151" edges="gneE6 gneE7 gneE8 gneE9"/>
<route id="route152" edges="gneE6 gneE7 gneE8 gneE9"/>
<route id="route153" edges="-gneE10 -gneE12 -gneE13"/>
<route id="route154" edges="gneE13 gneE12 -gneE7 -gneE6"/>
<route id="route155" edges="-gneE10 -gneE12 -gneE13"/>
<route id="route156" edges="-gneE10 -gneE12 -gneE13"/>
<route id="route157" edges="gneE6 gneE7 gneE8 gneE9"/>
<route id="route158" edges="gneE6 gneE7 gneE8 gneE9"/>
<route id="route159" edges="gneE13 gneE12 -gneE7 -gneE6"/>
<route id="route160" edges="-gneE10 -gneE12 -gneE13"/>
<route id="route161" edges="gneE13 gneE12 -gneE7 -gneE6"/>
<route id="route162" edges="gneE13 gneE12 -gneE7 -gneE6"/>
<route id="route163" edges="gneE13 gneE12 -gneE7 -gneE6"/>
<route id="route164" edges="gneE13 gneE12 -gneE7 -gneE6"/>
<route id="route165" edges="gneE13 gneE12 -gneE7 -gneE6"/>
<route id="route166" edges="-gneE9 -gneE8 gneE10 -gneE11"/>
<route id="route167" edges="gneE13 gneE12 -gneE7 -gneE6"/>
<route id="route168" edges="-gneE10 -gneE12 -gneE13"/>
<route id="route169" edges="-gneE10 -gneE12 -gneE13"/>
<route id="route170" edges="gneE13 gneE12 -gneE7 -gneE6"/>
<route id="route171" edges="gneE6 gneE7 gneE8 gneE9"/>
<route id="route172" edges="gneE13 gneE12 -gneE7 -gneE6"/>
<route id="route173" edges="-gneE10 -gneE12 -gneE13"/>
<route id="route174" edges="gneE6 gneE7 gneE8 gneE9"/>
<route id="route175" edges="-gneE10 -gneE12 -gneE13"/>
<route id="route176" edges="-gneE9 -gneE8 gneE10 -gneE11"/>
<route id="route177" edges="gneE6 gneE7 gneE8 gneE9"/>
<route id="route178" edges="-gneE10 -gneE12 -gneE13"/>
<route id="route179" edges="-gneE9 -gneE8 gneE10 -gneE11"/>
<route id="route180" edges="-gneE10 -gneE12 -gneE13"/>
<route id="route181" edges="-gneE10 -gneE12 -gneE13"/>
<route id="route182" edges="-gneE10 -gneE12 -gneE13"/>
<route id="route183" edges="gneE6 gneE7 gneE8 gneE9"/>
<route id="route184" edges="gneE6 gneE7 gneE8 gneE9"/>
<route id="route185" edges="-gneE10 -gneE12 -gneE13"/>
<route id="route186" edges="gneE6 gneE7 gneE8 gneE9"/>
<route id="route187" edges="-gneE10 -gneE12 -gneE13"/>
<route id="route188" edges="-gneE10 -gneE12 -gneE13"/>
<route id="route189" edges="-gneE9 -gneE8 gneE10 -gneE11"/>
<route id="route190" edges="-gneE10 -gneE12 -gneE13"/>
<route id="route191" edges="gneE6 gneE7 gneE8 gneE9"/>
<route id="route192" edges="gneE6 gneE7 gneE8 gneE9"/>
<route id="route193" edges="-gneE10 -gneE12 -gneE13"/>
<route id="route194" edges="-gneE9 -gneE8 gneE10 -gneE11"/>
<route id="route195" edges="-gneE9 -gneE8 gneE10 -gneE11"/>
<route id="route196" edges="-gneE9 -gneE8 gneE10 -gneE11"/>
<route id="route197" edges="-gneE10 -gneE12 -gneE13"/>
<route id="route198" edges="gneE13 gneE12 -gneE7 -gneE6"/>
<route id="route199" edges="gneE13 gneE12 -gneE7 -gneE6"/>
<vehicle id="veh0" type="car" route="route0" depart="0"/>
<vehicle id="veh1" type="car" route="route1" depart="1"/>
<vehicle id="veh2" type="car" route="route2" depart="2"/>
<vehicle id="veh3" type="car" route="route3" depart="3"/>
<vehicle id="veh4" type="car" route="route4" depart="4"/>
<vehicle id="veh5" type="car" route="route5" depart="5"/>
<vehicle id="veh6" type="car" route="route6" depart="6"/>
<vehicle id="veh7" type="car" route="route7" depart="7"/>
<vehicle id="veh8" type="car" route="route8" depart="8"/>
<vehicle id="veh9" type="car" route="route9" depart="9"/>
<vehicle id="veh10" type="car" route="route10" depart="10"/>
<vehicle id="veh11" type="car" route="route11" depart="11"/>
<vehicle id="veh12" type="car" route="route12" depart="12"/>
<vehicle id="veh13" type="car" route="route13" depart="13"/>
<vehicle id="veh14" type="car" route="route14" depart="14"/>
<vehicle id="veh15" type="car" route="route15" depart="15"/>
<vehicle id="veh16" type="car" route="route16" depart="16"/>
<vehicle id="veh17" type="car" route="route17" depart="17"/>
<vehicle id="veh18" type="car" route="route18" depart="18"/>
<vehicle id="veh19" type="car" route="route19" depart="19"/>
<vehicle id="veh20" type="car" route="route20" depart="20"/>
<vehicle id="veh21" type="car" route="route21" depart="21"/>
<vehicle id="veh22" type="car" route="route22" depart="22"/>
<vehicle id="veh23" type="car" route="route23" depart="23"/>
<vehicle id="veh24" type="car" route="route24" depart="24"/>
<vehicle id="veh25" type="car" route="route25" depart="25"/>
<vehicle id="veh26" type="car" route="route26" depart="26"/>
<vehicle id="veh27" type="car" route="route27" depart="27"/>
<vehicle id="veh28" type="car" route="route28" depart="28"/>
<vehicle id="veh29" type="car" route="route29" depart="29"/>
<vehicle id="veh30" type="car" route="route30" depart="30"/>
<vehicle id="veh31" type="car" route="route31" depart="31"/>
<vehicle id="veh32" type="car" route="route32" depart="32"/>
<vehicle id="veh33" type="car" route="route33" depart="33"/>
<vehicle id="veh34" type="car" route="route34" depart="34"/>
<vehicle id="veh35" type="car" route="route35" depart="35"/>
<vehicle id="veh36" type="car" route="route36" depart="36"/>
<vehicle id="veh37" type="car" route="route37" depart="37"/>
<vehicle id="veh38" type="car" route="route38" depart="38"/>
<vehicle id="veh39" type="car" route="route39" depart="39"/>
<vehicle id="veh40" type="car" route="route40" depart="40"/>
<vehicle id="veh41" type="car" route="route41" depart="41"/>
<vehicle id="veh42" type="car" route="route42" depart="42"/>
<vehicle id="veh43" type="car" route="route43" depart="43"/>
<vehicle id="veh44" type="car" route="route44" depart="44"/>
<vehicle id="veh45" type="car" route="route45" depart="45"/>
<vehicle id="veh46" type="car" route="route46" depart="46"/>
<vehicle id="veh47" type="car" route="route47" depart="47"/>
<vehicle id="veh48" type="car" route="route48" depart="48"/>
<vehicle id="veh49" type="car" route="route49" depart="49"/>
<vehicle id="veh50" type="car" route="route50" depart="50"/>
<vehicle id="veh51" type="car" route="route51" depart="51"/>
<vehicle id="veh52" type="car" route="route52" depart="52"/>
<vehicle id="veh53" type="car" route="route53" depart="53"/>
<vehicle id="veh54" type="car" route="route54" depart="54"/>
<vehicle id="veh55" type="car" route="route55" depart="55"/>
<vehicle id="veh56" type="car" route="route56" depart="56"/>
<vehicle id="veh57" type="car" route="route57" depart="57"/>
<vehicle id="veh58" type="car" route="route58" depart="58"/>
<vehicle id="veh59" type="car" route="route59" depart="59"/>
<vehicle id="veh60" type="car" route="route60" depart="60"/>
<vehicle id="veh61" type="car" route="route61" depart="61"/>
<vehicle id="veh62" type="car" route="route62" depart="62"/>
<vehicle id="veh63" type="car" route="route63" depart="63"/>
<vehicle id="veh64" type="car" route="route64" depart="64"/>
<vehicle id="veh65" type="car" route="route65" depart="65"/>
<vehicle id="veh66" type="car" route="route66" depart="66"/>
<vehicle id="veh67" type="car" route="route67" depart="67"/>
<vehicle id="veh68" type="car" route="route68" depart="68"/>
<vehicle id="veh69" type="car" route="route69" depart="69"/>
<vehicle id="veh70" type="car" route="route70" depart="70"/>
<vehicle id="veh71" type="car" route="route71" depart="71"/>
<vehicle id="veh72" type="car" route="route72" depart="72"/>
<vehicle id="veh73" type="car" route="route73" depart="73"/>
<vehicle id="veh74" type="car" route="route74" depart="74"/>
<vehicle id="veh75" type="car" route="route75" depart="75"/>
<vehicle id="veh76" type="car" route="route76" depart="76"/>
<vehicle id="veh77" type="car" route="route77" depart="77"/>
<vehicle id="veh78" type="car" route="route78" depart="78"/>
<vehicle id="veh79" type="car" route="route79" depart="79"/>
<vehicle id="veh80" type="car" route="route80" depart="80"/>
<vehicle id="veh81" type="car" route="route81" depart="81"/>
<vehicle id="veh82" type="car" route="route82" depart="82"/>
<vehicle id="veh83" type="car" route="route83" depart="83"/>
<vehicle id="veh84" type="car" route="route84" depart="84"/>
<vehicle id="veh85" type="car" route="route85" depart="85"/>
<vehicle id="veh86" type="car" route="route86" depart="86"/>
<vehicle id="veh87" type="car" route="route87" depart="87"/>
<vehicle id="veh88" type="car" route="route88" depart="88"/>
<vehicle id="veh89" type="car" route="route89" depart="89"/>
<vehicle id="veh90" type="car" route="route90" depart="90"/>
<vehicle id="veh91" type="car" route="route91" depart="91"/>
<vehicle id="veh92" type="car" route="route92" depart="92"/>
<vehicle id="veh93" type="car" route="route93" depart="93"/>
<vehicle id="veh94" type="car" route="route94" depart="94"/>
<vehicle id="veh95" type="car" route="route95" depart="95"/>
<vehicle id="veh96" type="car" route="route96" depart="96"/>
<vehicle id="veh97" type="car" route="route97" depart="97"/>
<vehicle id="veh98" type="car" route="route98" depart="98"/>
<vehicle id="veh99" type="car" route="route99" depart="99"/>
<vehicle id="veh100" type="car" route="route100" depart="100"/>
<vehicle id="veh101" type="car" route="route101" depart="101"/>
<vehicle id="veh102" type="car" route="route102" depart="102"/>
<vehicle id="veh103" type="car" route="route103" depart="103"/>
<vehicle id="veh104" type="car" route="route104" depart="104"/>
<vehicle id="veh105" type="car" route="route105" depart="105"/>
<vehicle id="veh106" type="car" route="route106" depart="106"/>
<vehicle id="veh107" type="car" route="route107" depart="107"/>
<vehicle id="veh108" type="car" route="route108" depart="108"/>
<vehicle id="veh109" type="car" route="route109" depart="109"/>
<vehicle id="veh110" type="car" route="route110" depart="110"/>
<vehicle id="veh111" type="car" route="route111" depart="111"/>
<vehicle id="veh112" type="car" route="route112" depart="112"/>
<vehicle id="veh113" type="car" route="route113" depart="113"/>
<vehicle id="veh114" type="car" route="route114" depart="114"/>
<vehicle id="veh115" type="car" route="route115" depart="115"/>
<vehicle id="veh116" type="car" route="route116" depart="116"/>
<vehicle id="veh117" type="car" route="route117" depart="117"/>
<vehicle id="veh118" type="car" route="route118" depart="118"/>
<vehicle id="veh119" type="car" route="route119" depart="119"/>
<vehicle id="veh120" type="car" route="route120" depart="120"/>
<vehicle id="veh121" type="car" route="route121" depart="121"/>
<vehicle id="veh122" type="car" route="route122" depart="122"/>
<vehicle id="veh123" type="car" route="route123" depart="123"/>
<vehicle id="veh124" type="car" route="route124" depart="124"/>
<vehicle id="veh125" type="car" route="route125" depart="125"/>
<vehicle id="veh126" type="car" route="route126" depart="126"/>
<vehicle id="veh127" type="car" route="route127" depart="127"/>
<vehicle id="veh128" type="car" route="route128" depart="128"/>
<vehicle id="veh129" type="car" route="route129" depart="129"/>
<vehicle id="veh130" type="car" route="route130" depart="130"/>
<vehicle id="veh131" type="car" route="route131" depart="131"/>
<vehicle id="veh132" type="car" route="route132" depart="132"/>
<vehicle id="veh133" type="car" route="route133" depart="133"/>
<vehicle id="veh134" type="car" route="route134" depart="134"/>
<vehicle id="veh135" type="car" route="route135" depart="135"/>
<vehicle id="veh136" type="car" route="route136" depart="136"/>
<vehicle id="veh137" type="car" route="route137" depart="137"/>
<vehicle id="veh138" type="car" route="route138" depart="138"/>
<vehicle id="veh139" type="car" route="route139" depart="139"/>
<vehicle id="veh140" type="car" route="route140" depart="140"/>
<vehicle id="veh141" type="car" route="route141" depart="141"/>
<vehicle id="veh142" type="car" route="route142" depart="142"/>
<vehicle id="veh143" type="car" route="route143" depart="143"/>
<vehicle id="veh144" type="car" route="route144" depart="144"/>
<vehicle id="veh145" type="car" route="route145" depart="145"/>
<vehicle id="veh146" type="car" route="route146" depart="146"/>
<vehicle id="veh147" type="car" route="route147" depart="147"/>
<vehicle id="veh148" type="car" route="route148" depart="148"/>
<vehicle id="veh149" type="car" route="route149" depart="149"/>
<vehicle id="veh150" type="car" route="route150" depart="150"/>
<vehicle id="veh151" type="car" route="route151" depart="151"/>
<vehicle id="veh152" type="car" route="route152" depart="152"/>
<vehicle id="veh153" type="car" route="route153" depart="153"/>
<vehicle id="veh154" type="car" route="route154" depart="154"/>
<vehicle id="veh155" type="car" route="route155" depart="155"/>
<vehicle id="veh156" type="car" route="route156" depart="156"/>
<vehicle id="veh157" type="car" route="route157" depart="157"/>
<vehicle id="veh158" type="car" route="route158" depart="158"/>
<vehicle id="veh159" type="car" route="route159" depart="159"/>
<vehicle id="veh160" type="car" route="route160" depart="160"/>
<vehicle id="veh161" type="car" route="route161" depart="161"/>
<vehicle id="veh162" type="car" route="route162" depart="162"/>
<vehicle id="veh163" type="car" route="route163" depart="163"/>
<vehicle id="veh164" type="car" route="route164" depart="164"/>
<vehicle id="veh165" type="car" route="route165" depart="165"/>
<vehicle id="veh166" type="car" route="route166" depart="166"/>
<vehicle id="veh167" type="car" route="route167" depart="167"/>
<vehicle id="veh168" type="car" route="route168" depart="168"/>
<vehicle id="veh169" type="car" route="route169" depart="169"/>
<vehicle id="veh170" type="car" route="route170" depart="170"/>
<vehicle id="veh171" type="car" route="route171" depart="171"/>
<vehicle id="veh172" type="car" route="route172" depart="172"/>
<vehicle id="veh173" type="car" route="route173" depart="173"/>
<vehicle id="veh174" type="car" route="route174" depart="174"/>
<vehicle id="veh175" type="car" route="route175" depart="175"/>
<vehicle id="veh176" type="car" route="route176" depart="176"/>
<vehicle id="veh177" type="car" route="route177" depart="177"/>
<vehicle id="veh178" type="car" route="route178" depart="178"/>
<vehicle id="veh179" type="car" route="route179" depart="179"/>
<vehicle id="veh180" type="car" route="route180" depart="180"/>
<vehicle id="veh181" type="car" route="route181" depart="181"/>
<vehicle id="veh182" type="car" route="route182" depart="182"/>
<vehicle id="veh183" type="car" route="route183" depart="183"/>
<vehicle id="veh184" type="car" route="route184" depart="184"/>
<vehicle id="veh185" type="car" route="route185" depart="185"/>
<vehicle id="veh186" type="car" route="route186" depart="186"/>
<vehicle id="veh187" type="car" route="route187" depart="187"/>
<vehicle id="veh188" type="car" route="route188" depart="188"/>
<vehicle id="veh189" type="car" route="route189" depart="189"/>
<vehicle id="veh190" type="car" route="route190" depart="190"/>
<vehicle id="veh191" type="car" route="route191" depart="191"/>
<vehicle id="veh192" type="car" route="route192" depart="192"/>
<vehicle id="veh193" type="car" route="route193" depart="193"/>
<vehicle id="veh194" type="car" route="route194" depart="194"/>
<vehicle id="veh195" type="car" route="route195" depart="195"/>
<vehicle id="veh196" type="car" route="route196" depart="196"/>
<vehicle id="veh197" type="car" route="route197" depart="197"/>
<vehicle id="veh198" type="car" route="route198" depart="198"/>
<vehicle id="veh199" type="car" route="route199" depart="199"/>
</routes>